165

 C    -8.9250000000E-01  -8.9250000000E-01  -6.2475000000E+00
 C     0.0000000000E+00   0.0000000000E+00  -7.1400000000E+00
 C     8.9250000000E-01   8.9250000000E-01  -6.2475000000E+00
 C    -8.9250000000E-01  -2.6775000000E+00  -4.4625000000E+00
 C     0.0000000000E+00  -1.7850000000E+00  -5.3550000000E+00
 C     8.9250000000E-01  -8.9250000000E-01  -4.4625000000E+00
 C     1.7850000000E+00   0.0000000000E+00  -5.3550000000E+00
 C     2.6775000000E+00   8.9250000000E-01  -4.4625000000E+00
 C    -8.9250000000E-01  -4.4625000000E+00  -2.6775000000E+00
 C     0.0000000000E+00  -3.5700000000E+00  -3.5700000000E+00
 C     8.9250000000E-01  -2.6775000000E+00  -2.6775000000E+00
 C     1.7850000000E+00  -1.7850000000E+00  -3.5700000000E+00
 C     2.6775000000E+00  -8.9250000000E-01  -2.6775000000E+00
 C     3.5700000000E+00   0.0000000000E+00  -3.5700000000E+00
 C     4.4625000000E+00   8.9250000000E-01  -2.6775000000E+00
 C    -8.9250000000E-01  -6.2475000000E+00  -8.9250000000E-01
 C     0.0000000000E+00  -5.3550000000E+00  -1.7850000000E+00
 C     8.9250000000E-01  -4.4625000000E+00  -8.9250000000E-01
 C     1.7850000000E+00  -3.5700000000E+00  -1.7850000000E+00
 C     2.6775000000E+00  -2.6775000000E+00  -8.9250000000E-01
 C     3.5700000000E+00  -1.7850000000E+00  -1.7850000000E+00
 C     4.4625000000E+00  -8.9250000000E-01  -8.9250000000E-01
 C     5.3550000000E+00   0.0000000000E+00  -1.7850000000E+00
 C     6.2475000000E+00   8.9250000000E-01  -8.9250000000E-01
 C     0.0000000000E+00  -7.1400000000E+00   0.0000000000E+00
 C     8.9250000000E-01  -6.2475000000E+00   8.9250000000E-01
 C     1.7850000000E+00  -5.3550000000E+00   0.0000000000E+00
 C     2.6775000000E+00  -4.4625000000E+00   8.9250000000E-01
 C     3.5700000000E+00  -3.5700000000E+00   0.0000000000E+00
 C     4.4625000000E+00  -2.6775000000E+00   8.9250000000E-01
 C     5.3550000000E+00  -1.7850000000E+00   0.0000000000E+00
 C     6.2475000000E+00  -8.9250000000E-01   8.9250000000E-01
 C     7.1400000000E+00   0.0000000000E+00   0.0000000000E+00
 C    -2.6775000000E+00  -8.9250000000E-01  -4.4625000000E+00
 C    -1.7850000000E+00   0.0000000000E+00  -5.3550000000E+00
 C    -8.9250000000E-01   8.9250000000E-01  -4.4625000000E+00
 C     0.0000000000E+00   1.7850000000E+00  -5.3550000000E+00
 C     8.9250000000E-01   2.6775000000E+00  -4.4625000000E+00
 C    -2.6775000000E+00  -2.6775000000E+00  -2.6775000000E+00
 C    -1.7850000000E+00  -1.7850000000E+00  -3.5700000000E+00
 C    -8.9250000000E-01  -8.9250000000E-01  -2.6775000000E+00
 C     0.0000000000E+00   0.0000000000E+00  -3.5700000000E+00
 C     8.9250000000E-01   8.9250000000E-01  -2.6775000000E+00
 C     1.7850000000E+00   1.7850000000E+00  -3.5700000000E+00
 C     2.6775000000E+00   2.6775000000E+00  -2.6775000000E+00
 C    -2.6775000000E+00  -4.4625000000E+00  -8.9250000000E-01
 C    -1.7850000000E+00  -3.5700000000E+00  -1.7850000000E+00
 C    -8.9250000000E-01  -2.6775000000E+00  -8.9250000000E-01
 C     0.0000000000E+00  -1.7850000000E+00  -1.7850000000E+00
 C     8.9250000000E-01  -8.9250000000E-01  -8.9250000000E-01
 C     1.7850000000E+00   0.0000000000E+00  -1.7850000000E+00
 C     2.6775000000E+00   8.9250000000E-01  -8.9250000000E-01
 C     3.5700000000E+00   1.7850000000E+00  -1.7850000000E+00
 C     4.4625000000E+00   2.6775000000E+00  -8.9250000000E-01
 C    -1.7850000000E+00  -5.3550000000E+00   0.0000000000E+00
 C    -8.9250000000E-01  -4.4625000000E+00   8.9250000000E-01
 C     0.0000000000E+00  -3.5700000000E+00   0.0000000000E+00
 C     8.9250000000E-01  -2.6775000000E+00   8.9250000000E-01
 C     1.7850000000E+00  -1.7850000000E+00   0.0000000000E+00
 C     2.6775000000E+00  -8.9250000000E-01   8.9250000000E-01
 C     3.5700000000E+00   0.0000000000E+00   0.0000000000E+00
 C     4.4625000000E+00   8.9250000000E-01   8.9250000000E-01
 C     5.3550000000E+00   1.7850000000E+00   0.0000000000E+00
 C     0.0000000000E+00  -5.3550000000E+00   1.7850000000E+00
 C     8.9250000000E-01  -4.4625000000E+00   2.6775000000E+00
 C     1.7850000000E+00  -3.5700000000E+00   1.7850000000E+00
 C     2.6775000000E+00  -2.6775000000E+00   2.6775000000E+00
 C     3.5700000000E+00  -1.7850000000E+00   1.7850000000E+00
 C     4.4625000000E+00  -8.9250000000E-01   2.6775000000E+00
 C     5.3550000000E+00   0.0000000000E+00   1.7850000000E+00
 C    -4.4625000000E+00  -8.9250000000E-01  -2.6775000000E+00
 C    -3.5700000000E+00   0.0000000000E+00  -3.5700000000E+00
 C    -2.6775000000E+00   8.9250000000E-01  -2.6775000000E+00
 C    -1.7850000000E+00   1.7850000000E+00  -3.5700000000E+00
 C    -8.9250000000E-01   2.6775000000E+00  -2.6775000000E+00
 C     0.0000000000E+00   3.5700000000E+00  -3.5700000000E+00
 C     8.9250000000E-01   4.4625000000E+00  -2.6775000000E+00
 C    -4.4625000000E+00  -2.6775000000E+00  -8.9250000000E-01
 C    -3.5700000000E+00  -1.7850000000E+00  -1.7850000000E+00
 C    -2.6775000000E+00  -8.9250000000E-01  -8.9250000000E-01
 C    -1.7850000000E+00   0.0000000000E+00  -1.7850000000E+00
 C    -8.9250000000E-01   8.9250000000E-01  -8.9250000000E-01
 C     0.0000000000E+00   1.7850000000E+00  -1.7850000000E+00
 C     8.9250000000E-01   2.6775000000E+00  -8.9250000000E-01
 C     1.7850000000E+00   3.5700000000E+00  -1.7850000000E+00
 C     2.6775000000E+00   4.4625000000E+00  -8.9250000000E-01
 C    -3.5700000000E+00  -3.5700000000E+00   0.0000000000E+00
 C    -2.6775000000E+00  -2.6775000000E+00   8.9250000000E-01
 C    -1.7850000000E+00  -1.7850000000E+00   0.0000000000E+00
 C    -8.9250000000E-01  -8.9250000000E-01   8.9250000000E-01
 C     0.0000000000E+00   0.0000000000E+00   0.0000000000E+00
 C     8.9250000000E-01   8.9250000000E-01   8.9250000000E-01
 C     1.7850000000E+00   1.7850000000E+00   0.0000000000E+00
 C     2.6775000000E+00   2.6775000000E+00   8.9250000000E-01
 C     3.5700000000E+00   3.5700000000E+00   0.0000000000E+00
 C    -1.7850000000E+00  -3.5700000000E+00   1.7850000000E+00
 C    -8.9250000000E-01  -2.6775000000E+00   2.6775000000E+00
 C     0.0000000000E+00  -1.7850000000E+00   1.7850000000E+00
 C     8.9250000000E-01  -8.9250000000E-01   2.6775000000E+00
 C     1.7850000000E+00   0.0000000000E+00   1.7850000000E+00
 C     2.6775000000E+00   8.9250000000E-01   2.6775000000E+00
 C     3.5700000000E+00   1.7850000000E+00   1.7850000000E+00
 C     0.0000000000E+00  -3.5700000000E+00   3.5700000000E+00
 C     8.9250000000E-01  -2.6775000000E+00   4.4625000000E+00
 C     1.7850000000E+00  -1.7850000000E+00   3.5700000000E+00
 C     2.6775000000E+00  -8.9250000000E-01   4.4625000000E+00
 C     3.5700000000E+00   0.0000000000E+00   3.5700000000E+00
 C    -6.2475000000E+00  -8.9250000000E-01  -8.9250000000E-01
 C    -5.3550000000E+00   0.0000000000E+00  -1.7850000000E+00
 C    -4.4625000000E+00   8.9250000000E-01  -8.9250000000E-01
 C    -3.5700000000E+00   1.7850000000E+00  -1.7850000000E+00
 C    -2.6775000000E+00   2.6775000000E+00  -8.9250000000E-01
 C    -1.7850000000E+00   3.5700000000E+00  -1.7850000000E+00
 C    -8.9250000000E-01   4.4625000000E+00  -8.9250000000E-01
 C     0.0000000000E+00   5.3550000000E+00  -1.7850000000E+00
 C     8.9250000000E-01   6.2475000000E+00  -8.9250000000E-01
 C    -5.3550000000E+00  -1.7850000000E+00   0.0000000000E+00
 C    -4.4625000000E+00  -8.9250000000E-01   8.9250000000E-01
 C    -3.5700000000E+00   0.0000000000E+00   0.0000000000E+00
 C    -2.6775000000E+00   8.9250000000E-01   8.9250000000E-01
 C    -1.7850000000E+00   1.7850000000E+00   0.0000000000E+00
 C    -8.9250000000E-01   2.6775000000E+00   8.9250000000E-01
 C     0.0000000000E+00   3.5700000000E+00   0.0000000000E+00
 C     8.9250000000E-01   4.4625000000E+00   8.9250000000E-01
 C     1.7850000000E+00   5.3550000000E+00   0.0000000000E+00
 C    -3.5700000000E+00  -1.7850000000E+00   1.7850000000E+00
 C    -2.6775000000E+00  -8.9250000000E-01   2.6775000000E+00
 C    -1.7850000000E+00   0.0000000000E+00   1.7850000000E+00
 C    -8.9250000000E-01   8.9250000000E-01   2.6775000000E+00
 C     0.0000000000E+00   1.7850000000E+00   1.7850000000E+00
 C     8.9250000000E-01   2.6775000000E+00   2.6775000000E+00
 C     1.7850000000E+00   3.5700000000E+00   1.7850000000E+00
 C    -1.7850000000E+00  -1.7850000000E+00   3.5700000000E+00
 C    -8.9250000000E-01  -8.9250000000E-01   4.4625000000E+00
 C     0.0000000000E+00   0.0000000000E+00   3.5700000000E+00
 C     8.9250000000E-01   8.9250000000E-01   4.4625000000E+00
 C     1.7850000000E+00   1.7850000000E+00   3.5700000000E+00
 C     0.0000000000E+00  -1.7850000000E+00   5.3550000000E+00
 C     8.9250000000E-01  -8.9250000000E-01   6.2475000000E+00
 C     1.7850000000E+00   0.0000000000E+00   5.3550000000E+00
 C    -7.1400000000E+00   0.0000000000E+00   0.0000000000E+00
 C    -6.2475000000E+00   8.9250000000E-01   8.9250000000E-01
 C    -5.3550000000E+00   1.7850000000E+00   0.0000000000E+00
 C    -4.4625000000E+00   2.6775000000E+00   8.9250000000E-01
 C    -3.5700000000E+00   3.5700000000E+00   0.0000000000E+00
 C    -2.6775000000E+00   4.4625000000E+00   8.9250000000E-01
 C    -1.7850000000E+00   5.3550000000E+00   0.0000000000E+00
 C    -8.9250000000E-01   6.2475000000E+00   8.9250000000E-01
 C     0.0000000000E+00   7.1400000000E+00   0.0000000000E+00
 C    -5.3550000000E+00   0.0000000000E+00   1.7850000000E+00
 C    -4.4625000000E+00   8.9250000000E-01   2.6775000000E+00
 C    -3.5700000000E+00   1.7850000000E+00   1.7850000000E+00
 C    -2.6775000000E+00   2.6775000000E+00   2.6775000000E+00
 C    -1.7850000000E+00   3.5700000000E+00   1.7850000000E+00
 C    -8.9250000000E-01   4.4625000000E+00   2.6775000000E+00
 C     0.0000000000E+00   5.3550000000E+00   1.7850000000E+00
 C    -3.5700000000E+00   0.0000000000E+00   3.5700000000E+00
 C    -2.6775000000E+00   8.9250000000E-01   4.4625000000E+00
 C    -1.7850000000E+00   1.7850000000E+00   3.5700000000E+00
 C    -8.9250000000E-01   2.6775000000E+00   4.4625000000E+00
 C     0.0000000000E+00   3.5700000000E+00   3.5700000000E+00
 C    -1.7850000000E+00   0.0000000000E+00   5.3550000000E+00
 C    -8.9250000000E-01   8.9250000000E-01   6.2475000000E+00
 C     0.0000000000E+00   1.7850000000E+00   5.3550000000E+00
 C     0.0000000000E+00   0.0000000000E+00   7.1400000000E+00
